Circuit: * C:\Users\nvshy\Downloads\Q1 FullAdder circuit.asc

WARNING: Less than two connections to node SUM.  This node is used by R:U5:OUT:OUT.
WARNING: Less than two connections to node C_AND_M.  This node is used by R:U6:OUT:OUT.
WARNING: Less than two connections to node Y0.  This node is used by R:U7:OUT1:OUT.
Direct Newton iteration for .op point succeeded.
Ignoring empty pin current: Ix(u1:vcc)
Ignoring empty pin current: Ix(u2:vcc)
Ignoring empty pin current: Ix(u3:vcc)
Ignoring empty pin current: Ix(u4:vcc)
Ignoring empty pin current: Ix(u5:vcc)
Ignoring empty pin current: Ix(u6:vcc)
Ignoring empty pin current: Ix(u7:vcc)
Ignoring empty pin current: Ix(u1:vcc)
Ignoring empty pin current: Ix(u2:vcc)
Ignoring empty pin current: Ix(u3:vcc)
Ignoring empty pin current: Ix(u4:vcc)
Ignoring empty pin current: Ix(u5:vcc)
Ignoring empty pin current: Ix(u6:vcc)
Ignoring empty pin current: Ix(u7:vcc)

Date: Sun Oct 31 14:59:24 2021
Total elapsed time: 0.127 seconds.

tnom = 27
temp = 27
method = modified trap
totiter = 5350
traniter = 5334
tranpoints = 2430
accept = 2151
rejected = 279
matrix size = 156
fillins = 11
solver = Normal
Thread vector: 7.4/4.5[5] 2.8/1.7[5] 2.0/1.4[5] 0.2/0.5[1]  2592/500
Matrix Compiler1: 3.99 KB object code size  0.9/0.7/[0.5]
Matrix Compiler2: 8.11 KB object code size  0.7/1.0/[0.4]


