Circuit: * C:\Users\nvshy\Downloads\Q1 Majority circuit.asc

WARNING: Less than two connections to node Y0.  This node is used by R:U7:OUT1:OUT.
WARNING: Less than two connections to node Y1.  This node is used by R:U7:OUT2:OUT.
WARNING: Less than two connections to node Y2.  This node is used by R:U7:OUT3:OUT.
WARNING: Less than two connections to node Y4.  This node is used by R:U7:OUT5:OUT.
WARNING: Less than two connections to node AB+BC+CA.  This node is used by R:U10:OUT:OUT.
Direct Newton iteration for .op point succeeded.
Ignoring empty pin current: Ix(u7:vcc)
Ignoring empty pin current: Ix(u8:vcc)
Ignoring empty pin current: Ix(u9:vcc)
Ignoring empty pin current: Ix(u10:vcc)
Ignoring empty pin current: Ix(u7:vcc)
Ignoring empty pin current: Ix(u8:vcc)
Ignoring empty pin current: Ix(u9:vcc)
Ignoring empty pin current: Ix(u10:vcc)

Date: Sun Oct 31 14:57:50 2021
Total elapsed time: 0.106 seconds.

tnom = 27
temp = 27
method = modified trap
totiter = 4832
traniter = 4816
tranpoints = 2225
accept = 1989
rejected = 236
matrix size = 117
fillins = 6
solver = Normal
Thread vector: 4.0/2.5[4] 1.9/1.3[4] 1.0/0.9[3] 0.2/0.4[1]  2592/500
Matrix Compiler1: 3.00 KB object code size  0.6/0.3/[0.2]
Matrix Compiler2: 5.94 KB object code size  0.4/0.7/[0.3]


