Circuit: * E:\DD\Lab\Lab2Ques1a.asc

WARNING: Less than two connections to node F.  This node is used by R:U3:OUT:OUT.
Direct Newton iteration for .op point succeeded.
Ignoring empty pin current: Ix(u1:vcc)
Ignoring empty pin current: Ix(u2:vcc)
Ignoring empty pin current: Ix(u3:vcc)
Ignoring empty pin current: Ix(u1:vcc)
Ignoring empty pin current: Ix(u2:vcc)
Ignoring empty pin current: Ix(u3:vcc)

Date: Sat Sep 04 10:04:48 2021
Total elapsed time: 0.118 seconds.

tnom = 27
temp = 27
method = modified trap
totiter = 7345
traniter = 7333
tranpoints = 3294
accept = 2884
rejected = 410
matrix size = 47
fillins = 1
solver = Normal
Matrix Compiler1: 1.27 KB object code size  0.6/0.3/[0.1]
Matrix Compiler2: 2.40 KB object code size  0.4/0.4/[0.4]


