Circuit: * E:\DD\Lab\Lab2ques4.asc

WARNING: Less than two connections to node S.  This node is used by R:U2:OUT:OUT.
WARNING: Less than two connections to node COUT.  This node is used by R:U5:OUT:OUT.
Direct Newton iteration for .op point succeeded.
Ignoring empty pin current: Ix(u1:vcc)
Ignoring empty pin current: Ix(u2:vcc)
Ignoring empty pin current: Ix(u3:vcc)
Ignoring empty pin current: Ix(u4:vcc)
Ignoring empty pin current: Ix(u5:vcc)
Ignoring empty pin current: Ix(u1:vcc)
Ignoring empty pin current: Ix(u2:vcc)
Ignoring empty pin current: Ix(u3:vcc)
Ignoring empty pin current: Ix(u4:vcc)
Ignoring empty pin current: Ix(u5:vcc)

Date: Sat Sep 04 10:21:55 2021
Total elapsed time: 0.125 seconds.

tnom = 27
temp = 27
method = modified trap
totiter = 4521
traniter = 4509
tranpoints = 2077
accept = 1880
rejected = 197
matrix size = 71
fillins = 1
solver = Normal
Thread vector: 4.0/3.1[2] 1.5/1.6[1] 0.9/1.0[1] 0.2/0.4[1]  2592/500
Matrix Compiler1: 1.93 KB object code size  0.5/0.3/[0.2]
Matrix Compiler2: 3.66 KB object code size  0.4/0.6/[0.3]


