Circuit: * E:\DD\Lab\Lab2ques3.asc

WARNING: Less than two connections to node S.  This node is used by R:U1:OUT:OUT.
WARNING: Less than two connections to node C.  This node is used by R:U2:OUT:OUT.
Direct Newton iteration for .op point succeeded.
Ignoring empty pin current: Ix(u1:vcc)
Ignoring empty pin current: Ix(u2:vcc)
Ignoring empty pin current: Ix(u1:vcc)
Ignoring empty pin current: Ix(u2:vcc)

Date: Sat Sep 04 10:11:38 2021
Total elapsed time: 0.094 seconds.

tnom = 27
temp = 27
method = modified trap
totiter = 2862
traniter = 2854
tranpoints = 1383
accept = 1320
rejected = 63
matrix size = 30
fillins = 0
solver = Normal
Matrix Compiler1: 806 bytes object code size  0.3/0.2/[0.1]
Matrix Compiler2: 1.53 KB object code size  0.2/0.3/[0.2]


