Circuit: * E:\DD\Lab\lab2ques2.asc

WARNING: Less than two connections to node G2.  This node is used by R:U1:OUT:OUT.
WARNING: Less than two connections to node G1.  This node is used by R:U3:OUT:OUT.
WARNING: Less than two connections to node G0.  This node is used by R:U4:OUT:OUT.
Direct Newton iteration for .op point succeeded.
Ignoring empty pin current: Ix(u1:vcc)
Ignoring empty pin current: Ix(u3:vcc)
Ignoring empty pin current: Ix(u4:vcc)
Ignoring empty pin current: Ix(u1:vcc)
Ignoring empty pin current: Ix(u3:vcc)
Ignoring empty pin current: Ix(u4:vcc)

Date: Sat Sep 04 09:47:42 2021
Total elapsed time: 0.091 seconds.

tnom = 27
temp = 27
method = modified trap
totiter = 5897
traniter = 5892
tranpoints = 2722
accept = 2474
rejected = 248
matrix size = 47
fillins = 0
solver = Normal
Matrix Compiler1: 1.23 KB object code size  0.4/0.2/[0.1]
Matrix Compiler2: 2.38 KB object code size  0.3/0.5/[0.2]


