Circuit: * C:\UTIL\DD\Lab\Lab 8\Schematics\Draft3.asc

WARNING: Less than two connections to node NC_01.  This node is used by R:U1:OUT2:OUT.
WARNING: Less than two connections to node NC_02.  This node is used by R:U2:OUT2:OUT.
WARNING: Less than two connections to node N003.  This node is used by R:U3:OUT:OUT.
Direct Newton iteration for .op point succeeded.
Ignoring empty pin current: Ix(u1:vcc)
Ignoring empty pin current: Ix(u2:vcc)
Ignoring empty pin current: Ix(u3:vcc)
Ignoring empty pin current: Ix(u1:vcc)
Ignoring empty pin current: Ix(u2:vcc)
Ignoring empty pin current: Ix(u3:vcc)

Date: Fri Nov 05 23:59:33 2021
Total elapsed time: 0.172 seconds.

tnom = 27
temp = 27
method = modified trap
totiter = 4296
traniter = 4289
tranpoints = 2011
accept = 1846
rejected = 165
matrix size = 85
fillins = 0
solver = Normal
Thread vector: 3.3/2.3[3] 1.5/1.1[3] 0.9/1.0[1] 0.1/0.4[1]  2592/500
Matrix Compiler1: 2.08 KB object code size  0.4/0.2/[0.1]
Matrix Compiler2: 4.17 KB object code size  0.3/0.5/[0.2]


